Program Version,EnergyPlus, Version 9.2.0-921312fa1d, YMD=2021.04.26 16:21
